opendss_networks/LV22_80bus/Loads.dss
new load.Ld137_LOAD_A phases=1 bus1=B2128.1.4 kv=0.249992666559  vminpu=0.1 vmaxpu=2
new load.Ld198_LOAD_B phases=1 bus1=B793.2.4 kv=0.249992666559  vminpu=0.1 vmaxpu=2
new load.Ld490_LOAD_C phases=1 bus1=B922.3.4 kv=0.249992666559  vminpu=0.1 vmaxpu=2
new load.Ld562_LOAD_A phases=1 bus1=B1331.1.4 kv=0.249992666559  vminpu=0.1 vmaxpu=2
new load.Ld986_LOAD_B phases=1 bus1=B1062.2.4 kv=0.249992666559  vminpu=0.1 vmaxpu=2
new load.Ld1084_LOAD_C phases=1 bus1=B2603.3.4 kv=0.249992666559  vminpu=0.1 vmaxpu=2
new load.Ld1092_LOAD_A phases=1 bus1=B45.1.4 kv=0.249992666559  vminpu=0.1 vmaxpu=2
new load.Ld1132_LOAD_B phases=1 bus1=B1704.2.4 kv=0.249992666559  vminpu=0.1 vmaxpu=2
new load.Ld1951_LOAD_C phases=1 bus1=B3263.3.4 kv=0.249992666559  vminpu=0.1 vmaxpu=2
new load.Ld2189_LOAD_A phases=1 bus1=B1101.1.4 kv=0.249992666559  vminpu=0.1 vmaxpu=2
new load.Ld2798_LOAD_B phases=1 bus1=B829.2.4 kv=0.249992666559  vminpu=0.1 vmaxpu=2
new load.Ld2981_LOAD_C phases=1 bus1=B1434.3.4 kv=0.249992666559  vminpu=0.1 vmaxpu=2
new load.Ld3166_LOAD_A phases=1 bus1=B1710.1.4 kv=0.249992666559  vminpu=0.1 vmaxpu=2
new load.Ld3264_LOAD_B phases=1 bus1=B947.2.4 kv=0.249992666559  vminpu=0.1 vmaxpu=2
new load.Ld3782_LOAD_C phases=1 bus1=B950.3.4 kv=0.249992666559  vminpu=0.1 vmaxpu=2
new load.Ld3931_LOAD_A phases=1 bus1=B2643.1.4 kv=0.249992666559  vminpu=0.1 vmaxpu=2
new load.Ld4251_LOAD_B phases=1 bus1=B1060.2.4 kv=0.249992666559  vminpu=0.1 vmaxpu=2
new load.Ld4273_LOAD_C phases=1 bus1=B385.3.4 kv=0.249992666559  vminpu=0.1 vmaxpu=2
new load.Ld4428_LOAD_A phases=1 bus1=B3018.1.4 kv=0.249992666559  vminpu=0.1 vmaxpu=2
new load.Ld4460_LOAD_B phases=1 bus1=B671.2.4 kv=0.249992666559  vminpu=0.1 vmaxpu=2
new load.Ld4525_LOAD_C phases=1 bus1=B341.3.4 kv=0.249992666559  vminpu=0.1 vmaxpu=2
